*Heading
** Job name: Static_Dam Model name: Model-1
** Generated by: Abaqus/CAE Student Edition 2020
*Preprint, echo=NO, model=NO, history=NO, contact=NO
**
** PARTS
**
*Part, name=Part-1
*Node
      1,   478.579987,           0.
      2,   317.160004,           0.
      3,   133.279999,           0.
      4,   98.2799988,           0.
      5,           0.,           0.
      6,  -161.419998,           0.
      7,  -161.419998,        -117.
      8,   478.579987,        -117.
      9,       116.93,         117.
     10,   305.890015,         11.5
     11,   252.990005,         11.5
     12,   114.629997,         117.
     13,   111.047813,    113.34375
     14,   463.905457,           0.
     15,   449.230896,           0.
     16,   434.556366,           0.
     17,   419.881805,           0.
     18,   405.207275,           0.
     19,   390.532715,           0.
     20,   375.858185,           0.
** ... 511 like lines cut
*Element, type=CPE3
  1, 152, 102, 103
  2, 227, 226,  29
  3, 173, 172,  42
  4, 256, 163, 247
  5, 185,  64, 184
  6, 188, 182,  69
  7, 240, 101, 102
  8, 419, 325, 243
  9, 216,  97, 195
 10, 177,  19, 176
 11, 214,  94, 196
 12, 361, 293, 359
 13, 212,  91, 197
 14, 211,  89,  90
 15, 311, 225, 303
 16, 218,  86,  87
 17, 208,  83,  84
 18, 287, 284, 206
 19, 206,  80,  81
 20, 379, 375, 300
** ... 930 like lines cut
*Nset, nset=Concrete
   3,   4,   9,  12,  35, 108, 109, 110, 111, 112, 113, 114, 128, 129, 130, 131
 132, 133, 134, 508, 509, 510
*Elset, elset=Concrete, generate
 861,  883,    1
*Nset, nset=Priming
   2,   3,   4,   5,   9,  10,  11,  12,  13,  24,  25,  26,  27,  28,  29,  30
  31,  32,  33,  34,  36,  37,  38,  39,  40,  41, 108, 109, 110, 111, 112, 113
 114, 115, 116, 117, 118, 119, 120, 121, 122, 123, 124, 125, 126, 127, 128, 129
 130, 131, 132, 133, 134, 135, 136, 137, 138, 139, 140, 141, 142, 143, 144, 481
 482, 483, 484, 485, 486, 487, 488, 489, 490, 491, 492, 493, 494, 495, 496, 497
 498, 499, 500, 501, 502, 503, 504, 505, 506, 507, 511, 512, 513, 514, 515, 516
 517, 518, 519, 520, 521, 522, 523, 524, 525, 526, 527, 528, 529, 530, 531
*Elset, elset=Priming
 773, 774, 775, 776, 777, 778, 779, 780, 781, 782, 783, 784, 785, 786, 787, 788
 789, 790, 791, 792, 793, 794, 795, 796, 797, 798, 799, 800, 801, 802, 803, 804
 805, 806, 807, 808, 809, 810, 811, 812, 813, 814, 815, 816, 817, 818, 819, 820
 821, 822, 823, 824, 825, 826, 827, 828, 829, 830, 831, 832, 833, 834, 835, 836
 837, 838, 839, 840, 841, 842, 843, 844, 845, 846, 847, 848, 849, 850, 851, 852
 853, 854, 855, 856, 857, 858, 859, 860, 884, 885, 886, 887, 888, 889, 890, 891
 892, 893, 894, 895, 896, 897, 898, 899, 900, 901, 902, 903, 904, 905, 906, 907
 908, 909, 910, 911, 912, 913, 914, 915, 916, 917, 918, 919, 920, 921, 922, 923
 924, 925, 926, 927, 928, 929, 930, 931, 932, 933, 934, 935, 936, 937, 938, 939
 940, 941, 942, 943, 944, 945, 946, 947, 948, 949, 950
*Nset, nset=Set-3
   1,   2,   3,   4,   5,   6,   7,   8,  14,  15,  16,  17,  18,  19,  20,  21
  22,  23,  24,  25,  26,  27,  28,  29,  30,  31,  32,  33,  34,  35,  36,  37
  38,  39,  40,  41,  42,  43,  44,  45,  46,  47,  48,  49,  50,  51,  52,  53
  54,  55,  56,  57,  58,  59,  60,  61,  62,  63,  64,  65,  66,  67,  68,  69
  70,  71,  72,  73,  74,  75,  76,  77,  78,  79,  80,  81,  82,  83,  84,  85
  86,  87,  88,  89,  90,  91,  92,  93,  94,  95,  96,  97,  98,  99, 100, 101
 102, 103, 104, 105, 106, 107, 145, 146, 147, 148, 149, 150, 151, 152, 153, 154
 155, 156, 157, 158, 159, 160, 161, 162, 163, 164, 165, 166, 167, 168, 169, 170
 171, 172, 173, 174, 175, 176, 177, 178, 179, 180, 181, 182, 183, 184, 185, 186
 187, 188, 189, 190, 191, 192, 193, 194, 195, 196, 197, 198, 199, 200, 201, 202
 203, 204, 205, 206, 207, 208, 209, 210, 211, 212, 213, 214, 215, 216, 217, 218
 219, 220, 221, 222, 223, 224, 225, 226, 227, 228, 229, 230, 231, 232, 233, 234
 235, 236, 237, 238, 239, 240, 241, 242, 243, 244, 245, 246, 247, 248, 249, 250
 251, 252, 253, 254, 255, 256, 257, 258, 259, 260, 261, 262, 263, 264, 265, 266
 267, 268, 269, 270, 271, 272, 273, 274, 275, 276, 277, 278, 279, 280, 281, 282
 283, 284, 285, 286, 287, 288, 289, 290, 291, 292, 293, 294, 295, 296, 297, 298
 299, 300, 301, 302, 303, 304, 305, 306, 307, 308, 309, 310, 311, 312, 313, 314
 315, 316, 317, 318, 319, 320, 321, 322, 323, 324, 325, 326, 327, 328, 329, 330
 331, 332, 333, 334, 335, 336, 337, 338, 339, 340, 341, 342, 343, 344, 345, 346
 347, 348, 349, 350, 351, 352, 353, 354, 355, 356, 357, 358, 359, 360, 361, 362
** ... 8 like lines cut
*Elset, elset=Set-3, generate
   1,  772,    1
*Nset, nset=Set-4
   3,   4,   9,  12,  35, 108, 109, 110, 111, 112, 113, 114, 128, 129, 130, 131
 132, 133, 134, 508, 509, 510
*Elset, elset=Set-4, generate
 861,  883,    1
*Nset, nset=Set-5
   2,   3,   4,   5,   9,  10,  11,  12,  13,  24,  25,  26,  27,  28,  29,  30
  31,  32,  33,  34,  36,  37,  38,  39,  40,  41, 108, 109, 110, 111, 112, 113
 114, 115, 116, 117, 118, 119, 120, 121, 122, 123, 124, 125, 126, 127, 128, 129
 130, 131, 132, 133, 134, 135, 136, 137, 138, 139, 140, 141, 142, 143, 144, 481
 482, 483, 484, 485, 486, 487, 488, 489, 490, 491, 492, 493, 494, 495, 496, 497
 498, 499, 500, 501, 502, 503, 504, 505, 506, 507, 511, 512, 513, 514, 515, 516
 517, 518, 519, 520, 521, 522, 523, 524, 525, 526, 527, 528, 529, 530, 531
*Elset, elset=Set-5
 773, 774, 775, 776, 777, 778, 779, 780, 781, 782, 783, 784, 785, 786, 787, 788
 789, 790, 791, 792, 793, 794, 795, 796, 797, 798, 799, 800, 801, 802, 803, 804
 805, 806, 807, 808, 809, 810, 811, 812, 813, 814, 815, 816, 817, 818, 819, 820
 821, 822, 823, 824, 825, 826, 827, 828, 829, 830, 831, 832, 833, 834, 835, 836
 837, 838, 839, 840, 841, 842, 843, 844, 845, 846, 847, 848, 849, 850, 851, 852
 853, 854, 855, 856, 857, 858, 859, 860, 884, 885, 886, 887, 888, 889, 890, 891
 892, 893, 894, 895, 896, 897, 898, 899, 900, 901, 902, 903, 904, 905, 906, 907
 908, 909, 910, 911, 912, 913, 914, 915, 916, 917, 918, 919, 920, 921, 922, 923
 924, 925, 926, 927, 928, 929, 930, 931, 932, 933, 934, 935, 936, 937, 938, 939
 940, 941, 942, 943, 944, 945, 946, 947, 948, 949, 950
** Section: Rock
*Solid Section, elset=Set-3, material=Rock
,
** Section: Concrete
*Solid Section, elset=Set-5, material=Concrete
,
** Section: Concrete2
*Solid Section, elset=Set-4, material=Concrete2
,
*End Part
**  
**
** ASSEMBLY
**
*Assembly, name=Assembly
**  
*Instance, name=Part-1-1, part=Part-1
*End Instance
**  
*Nset, nset=BC_X, instance=Part-1-1
   1,   6,   7,   8,  52,  53,  54,  55,  56,  57,  58, 101, 102, 103, 104, 105
 106, 107
*Elset, elset=BC_X, instance=Part-1-1
   1,   7,  44,  49,  51,  93,  94,  96,  97, 100, 118, 126, 129, 149, 295, 302
*Nset, nset=BC_Y, instance=Part-1-1
   7,   8,  59,  60,  61,  62,  63,  64,  65,  66,  67,  68,  69,  70,  71,  72
  73,  74,  75,  76,  77,  78,  79,  80,  81,  82,  83,  84,  85,  86,  87,  88
  89,  90,  91,  92,  93,  94,  95,  96,  97,  98,  99, 100
*Elset, elset=BC_Y, instance=Part-1-1
  14,  16,  17,  19,  21,  51,  75,  93, 111, 119, 169, 170, 171, 172, 173, 174
 175, 177, 178, 180, 182, 183, 186, 187, 197, 199, 201, 202, 203, 204, 205, 206
 208, 210, 212, 214, 216, 221, 225, 229, 233, 237, 241
*Elset, elset=_NPU1_S2, internal, instance=Part-1-1
  27, 104, 133, 134, 137, 138, 141, 143, 145, 147, 916, 918, 920, 922, 924, 926
 927, 929
*Elset, elset=_NPU1_S1, internal, instance=Part-1-1
  44, 893, 902
*Elset, elset=_NPU1_S3, internal, instance=Part-1-1
 891,
*Surface, type=ELEMENT, name=NPU1
_NPU1_S2, S2
_NPU1_S1, S1
_NPU1_S3, S3
*End Assembly
** 
** MATERIALS
** 
*Material, name=Concrete
*Density
2500.,
*Elastic
 2.5e+10, 0.2
*Material, name=Concrete2
*Density
2200.,
*Elastic
 2.2e+10, 0.2
*Material, name=Rock
*Elastic
 1.7e+10, 0.2
** ----------------------------------------------------------------
** 
** STEP: Static
** 
*Step, name=Static, nlgeom=NO
*Static
1., 1., 1e-05, 1.
** 
** BOUNDARY CONDITIONS
** 
** Name: BC-Y Type: Displacement/Rotation
*Boundary
BC_Y, 2, 2
** Name: BC_X Type: Displacement/Rotation
*Boundary
BC_X, 1, 1
** 
** LOADS
** 
** Name: Gravity   Type: Gravity
*Dload
, GRAV, 9.8, 0., -1.
** Name: Pressure   Type: Pressure Using Field: NPU
*Dload
Part-1-1.27, P2, 1.12868e+06
Part-1-1.44, P1, 1.12868e+06
Part-1-1.104, P2, 1.12868e+06
Part-1-1.133, P2, 1.12868e+06
Part-1-1.134, P2, 1.12868e+06
Part-1-1.137, P2, 1.12868e+06
Part-1-1.138, P2, 1.12868e+06
Part-1-1.141, P2, 1.12868e+06
Part-1-1.143, P2, 1.12868e+06
Part-1-1.145, P2, 1.12868e+06
Part-1-1.147, P2, 1.12868e+06
Part-1-1.891, P3, 68405.1
Part-1-1.893, P1, 1.07819e+06
Part-1-1.902, P1, 169384.
Part-1-1.916, P2, 371342.
Part-1-1.918, P2, 270363.
Part-1-1.920, P2, 977216.
Part-1-1.922, P2, 876237.
Part-1-1.924, P2, 775258.
Part-1-1.926, P2, 674279.
Part-1-1.927, P2, 573300.
Part-1-1.929, P2, 472321.
** 
** OUTPUT REQUESTS
** 
*Restart, write, frequency=0
** 
** FIELD OUTPUT: F-Output-1
** 
*Output, field
*Node Output
U, 
*Element Output, directions=YES
E, S
** 
** HISTORY OUTPUT: H-Output-1
** 
*Output, history, variable=PRESELECT
*End Step
