*Heading
** Job name: Thermal Model name: Model-1
** Generated by: Abaqus/CAE Student Edition 2020
*Preprint, echo=NO, model=NO, history=NO, contact=NO
**
** PARTS
**
*Part, name=Part-1
*Node
      1,       116.93,         117.
      2,   133.279999,           0.
      3,   317.160004,           0.
      4,   305.890015,         11.5
      5,   252.990005,         11.5
      6,   114.629997,         117.
      7,   98.2799988,           0.
      8,   111.047813,    113.34375
      9,           0.,           0.
     10,   118.187691,         108.
     11,   119.445381,          99.
     12,   120.703079,          90.
     13,    121.96077,          81.
     14,    123.21846,          72.
     15,   124.476151,          63.
     16,   125.733849,          54.
     17,   126.991539,          45.
     18,   128.249237,          36.
     19,   129.506927,          27.
     20,   130.764618,          18.
** ... 253 like lines cut
*Element, type=DC2D3
  1, 128,  10,  11
  2, 156, 119, 142
  3, 185,  38, 165
  4, 158,   2,  22
  5, 158, 127, 157
  6, 157,  20,  21
  7, 134,  57, 133
  8, 109,  19, 108
  9, 110,  18, 109
 10, 111,  17, 110
 11, 112,  16, 111
 12, 113,  15, 112
 13, 114,  14, 113
 14, 115,  12,  13
 15, 116,  11,  12
 16,  40,   3,  41
 17, 117,  40,  41
 18, 165, 117,  42
 19, 165,  39, 117
 20,  44,  36,  37
** ... 442 like lines cut
*Nset, nset=Concrete
   1,   2,   6,   7,  10,  11,  12,  13,  14,  15,  16,  17,  18,  19,  20,  21
  65,  66,  67,  68,  69,  70,  71,  72,  73,  74,  75,  76,  77,  78,  79, 196
 197, 198, 199, 200, 201, 202, 203, 204, 205, 206, 207, 208, 209, 210
*Elset, elset=Concrete, generate
 237,  295,    1
*Nset, nset=Priming
   1,   2,   3,   4,   5,   6,   7,   8,   9,  10,  11,  12,  13,  14,  15,  16
  17,  18,  19,  20,  21,  22,  23,  24,  25,  26,  27,  28,  29,  30,  31,  32
  33,  34,  35,  36,  37,  38,  39,  40,  41,  42,  43,  44,  45,  46,  47,  48
  49,  50,  51,  52,  53,  54,  55,  56,  57,  58,  59,  60,  61,  62,  63,  64
  65,  66,  67,  68,  69,  70,  71,  72,  73,  74,  75,  76,  80,  81,  82,  83
  84,  85,  86,  87,  88,  89,  90,  91,  92,  93,  94,  95,  96,  97,  98,  99
 100, 101, 102, 103, 104, 105, 106, 107, 108, 109, 110, 111, 112, 113, 114, 115
 116, 117, 118, 119, 120, 121, 122, 123, 124, 125, 126, 127, 128, 129, 130, 131
 132, 133, 134, 135, 136, 137, 138, 139, 140, 141, 142, 143, 144, 145, 146, 147
 148, 149, 150, 151, 152, 153, 154, 155, 156, 157, 158, 159, 160, 161, 162, 163
 164, 165, 166, 167, 168, 169, 170, 171, 172, 173, 174, 175, 176, 177, 178, 179
 180, 181, 182, 183, 184, 185, 186, 187, 188, 189, 190, 191, 192, 193, 194, 195
 211, 212, 213, 214, 215, 216, 217, 218, 219, 220, 221, 222, 223, 224, 225, 226
 227, 228, 229, 230, 231, 232, 233, 234, 235, 236, 237, 238, 239, 240, 241, 242
 243, 244, 245, 246, 247, 248, 249, 250, 251, 252, 253, 254, 255, 256, 257, 258
 259, 260, 261, 262, 263, 264, 265, 266, 267, 268, 269, 270, 271, 272, 273
*Elset, elset=Priming
   1,   2,   3,   4,   5,   6,   7,   8,   9,  10,  11,  12,  13,  14,  15,  16
  17,  18,  19,  20,  21,  22,  23,  24,  25,  26,  27,  28,  29,  30,  31,  32
  33,  34,  35,  36,  37,  38,  39,  40,  41,  42,  43,  44,  45,  46,  47,  48
  49,  50,  51,  52,  53,  54,  55,  56,  57,  58,  59,  60,  61,  62,  63,  64
  65,  66,  67,  68,  69,  70,  71,  72,  73,  74,  75,  76,  77,  78,  79,  80
  81,  82,  83,  84,  85,  86,  87,  88,  89,  90,  91,  92,  93,  94,  95,  96
  97,  98,  99, 100, 101, 102, 103, 104, 105, 106, 107, 108, 109, 110, 111, 112
 113, 114, 115, 116, 117, 118, 119, 120, 121, 122, 123, 124, 125, 126, 127, 128
 129, 130, 131, 132, 133, 134, 135, 136, 137, 138, 139, 140, 141, 142, 143, 144
 145, 146, 147, 148, 149, 150, 151, 152, 153, 154, 155, 156, 157, 158, 159, 160
 161, 162, 163, 164, 165, 166, 167, 168, 169, 170, 171, 172, 173, 174, 175, 176
 177, 178, 179, 180, 181, 182, 183, 184, 185, 186, 187, 188, 189, 190, 191, 192
 193, 194, 195, 196, 197, 198, 199, 200, 201, 202, 203, 204, 205, 206, 207, 208
 209, 210, 211, 212, 213, 214, 215, 216, 217, 218, 219, 220, 221, 222, 223, 224
 225, 226, 227, 228, 229, 230, 231, 232, 233, 234, 235, 236, 296, 297, 298, 299
 300, 301, 302, 303, 304, 305, 306, 307, 308, 309, 310, 311, 312, 313, 314, 315
 316, 317, 318, 319, 320, 321, 322, 323, 324, 325, 326, 327, 328, 329, 330, 331
 332, 333, 334, 335, 336, 337, 338, 339, 340, 341, 342, 343, 344, 345, 346, 347
 348, 349, 350, 351, 352, 353, 354, 355, 356, 357, 358, 359, 360, 361, 362, 363
 364, 365, 366, 367, 368, 369, 370, 371, 372, 373, 374, 375, 376, 377, 378, 379
** ... 6 like lines cut
** Section: Priming
*Solid Section, elset=Priming, material=Primimg
,
** Section: Concrete
*Solid Section, elset=Concrete, material=Concrete_1
,
*End Part
**  
**
** ASSEMBLY
**
*Assembly, name=Assembly
**  
*Instance, name=Part-1-1, part=Part-1
*End Instance
**  
*Nset, nset=T_air, instance=Part-1-1
  1,  3,  4,  5,  6,  8, 41, 42, 43, 44, 45, 46, 47, 48, 49, 50
 51, 52, 53, 54, 55, 56, 57, 58, 59, 60, 61, 62, 63, 64
*Elset, elset=T_air, instance=Part-1-1
  16,  24,  25,  35,  36,  37,  38,  39,  40,  41,  75,  80,  84, 101, 103, 106
 108, 110, 112, 114, 116, 118, 120, 122, 124, 125, 127, 250, 309
*Nset, nset=T_water, instance=Part-1-1
  8,  9, 80, 81, 82, 83, 84, 85, 86, 87, 88, 89, 90, 91, 92, 93
 94, 95, 96
*Elset, elset=T_water, instance=Part-1-1
 304, 308, 310, 326, 354, 356, 358, 360, 362, 364, 366, 368, 370, 372, 374, 375
 377, 397
*End Assembly
** 
** MATERIALS
** 
*Material, name=Concrete_1
*Conductivity
 1.75,
*Material, name=Primimg
*Conductivity
 1.5,
** ----------------------------------------------------------------
** 
** STEP: Thermal
** 
*Step, name=Thermal, nlgeom=NO
*Heat Transfer, steady state
1., 1., 1., 1., 
** 
** BOUNDARY CONDITIONS
** 
** Name: T_air Type: Temperature
*Boundary
T_air, 11, 11, 25.
** Name: T_water Type: Temperature
*Boundary
T_water, 11, 11, 5.
** 
** OUTPUT REQUESTS
** 
*Restart, write, frequency=0
** 
** FIELD OUTPUT: F-Output-1
** 
*Output, field
*Node Output
NT, 
*Element Output, directions=YES
TEMP, 
*Output, history, frequency=0
*End Step
